* NGSPICE file created from tt_um_audio_player.ext - technology: sky130A

* Black-box entry subcircuit for sky130_fd_sc_hd__tapvpwrvgnd_1 abstract view
.subckt sky130_fd_sc_hd__tapvpwrvgnd_1 VGND VPWR
.ends

* Black-box entry subcircuit for sky130_fd_sc_hd__decap_3 abstract view
.subckt sky130_fd_sc_hd__decap_3 VGND VNB VPB VPWR
.ends

* Black-box entry subcircuit for sky130_fd_sc_hd__o31a_1 abstract view
.subckt sky130_fd_sc_hd__o31a_1 A1 A2 A3 B1 VGND VNB VPB VPWR X
.ends

* Black-box entry subcircuit for sky130_fd_sc_hd__fill_1 abstract view
.subckt sky130_fd_sc_hd__fill_1 VGND VNB VPB VPWR
.ends

* Black-box entry subcircuit for sky130_fd_sc_hd__dfrtp_1 abstract view
.subckt sky130_fd_sc_hd__dfrtp_1 CLK D RESET_B VGND VNB VPB VPWR Q
.ends

* Black-box entry subcircuit for sky130_fd_sc_hd__nand2b_4 abstract view
.subckt sky130_fd_sc_hd__nand2b_4 A_N B VGND VNB VPB VPWR Y
.ends

* Black-box entry subcircuit for sky130_fd_sc_hd__fill_2 abstract view
.subckt sky130_fd_sc_hd__fill_2 VGND VNB VPB VPWR
.ends

* Black-box entry subcircuit for sky130_fd_sc_hd__a32o_1 abstract view
.subckt sky130_fd_sc_hd__a32o_1 A1 A2 A3 B1 B2 VGND VNB VPB VPWR X
.ends

* Black-box entry subcircuit for sky130_fd_sc_hd__buf_2 abstract view
.subckt sky130_fd_sc_hd__buf_2 A VGND VNB VPB VPWR X
.ends

* Black-box entry subcircuit for sky130_fd_sc_hd__nor2_1 abstract view
.subckt sky130_fd_sc_hd__nor2_1 A B VGND VNB VPB VPWR Y
.ends

* Black-box entry subcircuit for sky130_fd_sc_hd__buf_4 abstract view
.subckt sky130_fd_sc_hd__buf_4 A VGND VNB VPB VPWR X
.ends

* Black-box entry subcircuit for sky130_fd_sc_hd__o21ai_1 abstract view
.subckt sky130_fd_sc_hd__o21ai_1 A1 A2 B1 VGND VNB VPB VPWR Y
.ends

* Black-box entry subcircuit for sky130_fd_sc_hd__a311o_1 abstract view
.subckt sky130_fd_sc_hd__a311o_1 A1 A2 A3 B1 C1 VGND VNB VPB VPWR X
.ends

* Black-box entry subcircuit for sky130_fd_sc_hd__or3_1 abstract view
.subckt sky130_fd_sc_hd__or3_1 A B C VGND VNB VPB VPWR X
.ends

* Black-box entry subcircuit for sky130_fd_sc_hd__nor4_2 abstract view
.subckt sky130_fd_sc_hd__nor4_2 A B C D VGND VNB VPB VPWR Y
.ends

* Black-box entry subcircuit for sky130_fd_sc_hd__and2b_1 abstract view
.subckt sky130_fd_sc_hd__and2b_1 A_N B VGND VNB VPB VPWR X
.ends

* Black-box entry subcircuit for sky130_fd_sc_hd__and4b_1 abstract view
.subckt sky130_fd_sc_hd__and4b_1 A_N B C D VGND VNB VPB VPWR X
.ends

* Black-box entry subcircuit for sky130_fd_sc_hd__a31oi_1 abstract view
.subckt sky130_fd_sc_hd__a31oi_1 A1 A2 A3 B1 VGND VNB VPB VPWR Y
.ends

* Black-box entry subcircuit for sky130_fd_sc_hd__or2_1 abstract view
.subckt sky130_fd_sc_hd__or2_1 A B VGND VNB VPB VPWR X
.ends

* Black-box entry subcircuit for sky130_fd_sc_hd__a21o_1 abstract view
.subckt sky130_fd_sc_hd__a21o_1 A1 A2 B1 VGND VNB VPB VPWR X
.ends

* Black-box entry subcircuit for sky130_fd_sc_hd__o32a_1 abstract view
.subckt sky130_fd_sc_hd__o32a_1 A1 A2 A3 B1 B2 VGND VNB VPB VPWR X
.ends

* Black-box entry subcircuit for sky130_fd_sc_hd__and3_1 abstract view
.subckt sky130_fd_sc_hd__and3_1 A B C VGND VNB VPB VPWR X
.ends

* Black-box entry subcircuit for sky130_fd_sc_hd__diode_2 abstract view
.subckt sky130_fd_sc_hd__diode_2 DIODE VGND VNB VPB VPWR
.ends

* Black-box entry subcircuit for sky130_fd_sc_hd__a21oi_2 abstract view
.subckt sky130_fd_sc_hd__a21oi_2 A1 A2 B1 VGND VNB VPB VPWR Y
.ends

* Black-box entry subcircuit for sky130_fd_sc_hd__nor2_2 abstract view
.subckt sky130_fd_sc_hd__nor2_2 A B VGND VNB VPB VPWR Y
.ends

* Black-box entry subcircuit for sky130_fd_sc_hd__clkbuf_4 abstract view
.subckt sky130_fd_sc_hd__clkbuf_4 A VGND VNB VPB VPWR X
.ends

* Black-box entry subcircuit for sky130_fd_sc_hd__o211a_1 abstract view
.subckt sky130_fd_sc_hd__o211a_1 A1 A2 B1 C1 VGND VNB VPB VPWR X
.ends

* Black-box entry subcircuit for sky130_fd_sc_hd__nand2_1 abstract view
.subckt sky130_fd_sc_hd__nand2_1 A B VGND VNB VPB VPWR Y
.ends

* Black-box entry subcircuit for sky130_fd_sc_hd__nand3_2 abstract view
.subckt sky130_fd_sc_hd__nand3_2 A B C VGND VNB VPB VPWR Y
.ends

* Black-box entry subcircuit for sky130_fd_sc_hd__o21a_1 abstract view
.subckt sky130_fd_sc_hd__o21a_1 A1 A2 B1 VGND VNB VPB VPWR X
.ends

* Black-box entry subcircuit for sky130_fd_sc_hd__o2111a_1 abstract view
.subckt sky130_fd_sc_hd__o2111a_1 A1 A2 B1 C1 D1 VGND VNB VPB VPWR X
.ends

* Black-box entry subcircuit for sky130_fd_sc_hd__o22a_1 abstract view
.subckt sky130_fd_sc_hd__o22a_1 A1 A2 B1 B2 VGND VNB VPB VPWR X
.ends

* Black-box entry subcircuit for sky130_fd_sc_hd__o21ai_2 abstract view
.subckt sky130_fd_sc_hd__o21ai_2 A1 A2 B1 VGND VNB VPB VPWR Y
.ends

* Black-box entry subcircuit for sky130_fd_sc_hd__a21oi_1 abstract view
.subckt sky130_fd_sc_hd__a21oi_1 A1 A2 B1 VGND VNB VPB VPWR Y
.ends

* Black-box entry subcircuit for sky130_fd_sc_hd__or4_1 abstract view
.subckt sky130_fd_sc_hd__or4_1 A B C D VGND VNB VPB VPWR X
.ends

* Black-box entry subcircuit for sky130_fd_sc_hd__a31o_1 abstract view
.subckt sky130_fd_sc_hd__a31o_1 A1 A2 A3 B1 VGND VNB VPB VPWR X
.ends

* Black-box entry subcircuit for sky130_fd_sc_hd__dfrtp_2 abstract view
.subckt sky130_fd_sc_hd__dfrtp_2 CLK D RESET_B VGND VNB VPB VPWR Q
.ends

* Black-box entry subcircuit for sky130_fd_sc_hd__a31o_2 abstract view
.subckt sky130_fd_sc_hd__a31o_2 A1 A2 A3 B1 VGND VNB VPB VPWR X
.ends

* Black-box entry subcircuit for sky130_fd_sc_hd__clkbuf_2 abstract view
.subckt sky130_fd_sc_hd__clkbuf_2 A VGND VNB VPB VPWR X
.ends

* Black-box entry subcircuit for sky130_fd_sc_hd__o311a_1 abstract view
.subckt sky130_fd_sc_hd__o311a_1 A1 A2 A3 B1 C1 VGND VNB VPB VPWR X
.ends

* Black-box entry subcircuit for sky130_fd_sc_hd__clkbuf_1 abstract view
.subckt sky130_fd_sc_hd__clkbuf_1 A VGND VNB VPB VPWR X
.ends

* Black-box entry subcircuit for sky130_fd_sc_hd__a211o_1 abstract view
.subckt sky130_fd_sc_hd__a211o_1 A1 A2 B1 C1 VGND VNB VPB VPWR X
.ends

* Black-box entry subcircuit for sky130_fd_sc_hd__a22o_1 abstract view
.subckt sky130_fd_sc_hd__a22o_1 A1 A2 B1 B2 VGND VNB VPB VPWR X
.ends

* Black-box entry subcircuit for sky130_fd_sc_hd__a2111o_1 abstract view
.subckt sky130_fd_sc_hd__a2111o_1 A1 A2 B1 C1 D1 VGND VNB VPB VPWR X
.ends

* Black-box entry subcircuit for sky130_fd_sc_hd__dlygate4sd3_1 abstract view
.subckt sky130_fd_sc_hd__dlygate4sd3_1 A VGND VNB VPB VPWR X
.ends

* Black-box entry subcircuit for sky130_fd_sc_hd__o211ai_1 abstract view
.subckt sky130_fd_sc_hd__o211ai_1 A1 A2 B1 C1 VGND VNB VPB VPWR Y
.ends

* Black-box entry subcircuit for sky130_fd_sc_hd__o22ai_1 abstract view
.subckt sky130_fd_sc_hd__o22ai_1 A1 A2 B1 B2 VGND VNB VPB VPWR Y
.ends

* Black-box entry subcircuit for sky130_fd_sc_hd__nand2_2 abstract view
.subckt sky130_fd_sc_hd__nand2_2 A B VGND VNB VPB VPWR Y
.ends

* Black-box entry subcircuit for sky130_fd_sc_hd__mux2_1 abstract view
.subckt sky130_fd_sc_hd__mux2_1 A0 A1 S VGND VNB VPB VPWR X
.ends

* Black-box entry subcircuit for sky130_fd_sc_hd__o41a_1 abstract view
.subckt sky130_fd_sc_hd__o41a_1 A1 A2 A3 A4 B1 VGND VNB VPB VPWR X
.ends

* Black-box entry subcircuit for sky130_fd_sc_hd__o21ba_1 abstract view
.subckt sky130_fd_sc_hd__o21ba_1 A1 A2 B1_N VGND VNB VPB VPWR X
.ends

* Black-box entry subcircuit for sky130_fd_sc_hd__mux4_1 abstract view
.subckt sky130_fd_sc_hd__mux4_1 A0 A1 A2 A3 S0 S1 VGND VNB VPB VPWR X
.ends

* Black-box entry subcircuit for sky130_fd_sc_hd__or2_4 abstract view
.subckt sky130_fd_sc_hd__or2_4 A B VGND VNB VPB VPWR X
.ends

* Black-box entry subcircuit for sky130_fd_sc_hd__a21bo_1 abstract view
.subckt sky130_fd_sc_hd__a21bo_1 A1 A2 B1_N VGND VNB VPB VPWR X
.ends

* Black-box entry subcircuit for sky130_fd_sc_hd__buf_1 abstract view
.subckt sky130_fd_sc_hd__buf_1 A VGND VNB VPB VPWR X
.ends

* Black-box entry subcircuit for sky130_fd_sc_hd__and2_1 abstract view
.subckt sky130_fd_sc_hd__and2_1 A B VGND VNB VPB VPWR X
.ends

* Black-box entry subcircuit for sky130_fd_sc_hd__clkinvlp_4 abstract view
.subckt sky130_fd_sc_hd__clkinvlp_4 A VGND VNB VPB VPWR Y
.ends

* Black-box entry subcircuit for sky130_fd_sc_hd__inv_2 abstract view
.subckt sky130_fd_sc_hd__inv_2 A VGND VNB VPB VPWR Y
.ends

* Black-box entry subcircuit for sky130_fd_sc_hd__conb_1 abstract view
.subckt sky130_fd_sc_hd__conb_1 VGND VNB VPB VPWR HI LO
.ends

* Black-box entry subcircuit for sky130_fd_sc_hd__a41oi_2 abstract view
.subckt sky130_fd_sc_hd__a41oi_2 A1 A2 A3 A4 B1 VGND VNB VPB VPWR Y
.ends

* Black-box entry subcircuit for sky130_fd_sc_hd__or3b_2 abstract view
.subckt sky130_fd_sc_hd__or3b_2 A B C_N VGND VNB VPB VPWR X
.ends

* Black-box entry subcircuit for sky130_fd_sc_hd__clkinv_2 abstract view
.subckt sky130_fd_sc_hd__clkinv_2 A VGND VNB VPB VPWR Y
.ends

* Black-box entry subcircuit for sky130_fd_sc_hd__or3_4 abstract view
.subckt sky130_fd_sc_hd__or3_4 A B C VGND VNB VPB VPWR X
.ends

* Black-box entry subcircuit for sky130_fd_sc_hd__a221o_1 abstract view
.subckt sky130_fd_sc_hd__a221o_1 A1 A2 B1 B2 C1 VGND VNB VPB VPWR X
.ends

* Black-box entry subcircuit for sky130_fd_sc_hd__dfrtp_4 abstract view
.subckt sky130_fd_sc_hd__dfrtp_4 CLK D RESET_B VGND VNB VPB VPWR Q
.ends

* Black-box entry subcircuit for sky130_fd_sc_hd__and2_2 abstract view
.subckt sky130_fd_sc_hd__and2_2 A B VGND VNB VPB VPWR X
.ends

* Black-box entry subcircuit for sky130_fd_sc_hd__or3b_1 abstract view
.subckt sky130_fd_sc_hd__or3b_1 A B C_N VGND VNB VPB VPWR X
.ends

* Black-box entry subcircuit for sky130_fd_sc_hd__a41o_4 abstract view
.subckt sky130_fd_sc_hd__a41o_4 A1 A2 A3 A4 B1 VGND VNB VPB VPWR X
.ends

* Black-box entry subcircuit for sky130_fd_sc_hd__a32oi_1 abstract view
.subckt sky130_fd_sc_hd__a32oi_1 A1 A2 A3 B1 B2 VGND VNB VPB VPWR Y
.ends

* Black-box entry subcircuit for sky130_fd_sc_hd__or3_2 abstract view
.subckt sky130_fd_sc_hd__or3_2 A B C VGND VNB VPB VPWR X
.ends

* Black-box entry subcircuit for sky130_fd_sc_hd__o221a_1 abstract view
.subckt sky130_fd_sc_hd__o221a_1 A1 A2 B1 B2 C1 VGND VNB VPB VPWR X
.ends

* Black-box entry subcircuit for sky130_fd_sc_hd__nor2_4 abstract view
.subckt sky130_fd_sc_hd__nor2_4 A B VGND VNB VPB VPWR Y
.ends

* Black-box entry subcircuit for sky130_fd_sc_hd__a22oi_2 abstract view
.subckt sky130_fd_sc_hd__a22oi_2 A1 A2 B1 B2 VGND VNB VPB VPWR Y
.ends

* Black-box entry subcircuit for sky130_fd_sc_hd__nor3_4 abstract view
.subckt sky130_fd_sc_hd__nor3_4 A B C VGND VNB VPB VPWR Y
.ends

* Black-box entry subcircuit for sky130_fd_sc_hd__or2_2 abstract view
.subckt sky130_fd_sc_hd__or2_2 A B VGND VNB VPB VPWR X
.ends

* Black-box entry subcircuit for sky130_fd_sc_hd__clkbuf_16 abstract view
.subckt sky130_fd_sc_hd__clkbuf_16 A VGND VNB VPB VPWR X
.ends

* Black-box entry subcircuit for sky130_fd_sc_hd__o2bb2a_1 abstract view
.subckt sky130_fd_sc_hd__o2bb2a_1 A1_N A2_N B1 B2 VGND VNB VPB VPWR X
.ends

* Black-box entry subcircuit for sky130_fd_sc_hd__a311oi_4 abstract view
.subckt sky130_fd_sc_hd__a311oi_4 A1 A2 A3 B1 C1 VGND VNB VPB VPWR Y
.ends

* Black-box entry subcircuit for sky130_fd_sc_hd__nor3_2 abstract view
.subckt sky130_fd_sc_hd__nor3_2 A B C VGND VNB VPB VPWR Y
.ends

* Black-box entry subcircuit for sky130_fd_sc_hd__and4_1 abstract view
.subckt sky130_fd_sc_hd__and4_1 A B C D VGND VNB VPB VPWR X
.ends

* Black-box entry subcircuit for sky130_fd_sc_hd__a21boi_1 abstract view
.subckt sky130_fd_sc_hd__a21boi_1 A1 A2 B1_N VGND VNB VPB VPWR Y
.ends

* Black-box entry subcircuit for sky130_fd_sc_hd__a31oi_4 abstract view
.subckt sky130_fd_sc_hd__a31oi_4 A1 A2 A3 B1 VGND VNB VPB VPWR Y
.ends

* Black-box entry subcircuit for sky130_fd_sc_hd__o211a_2 abstract view
.subckt sky130_fd_sc_hd__o211a_2 A1 A2 B1 C1 VGND VNB VPB VPWR X
.ends

* Black-box entry subcircuit for sky130_fd_sc_hd__or4b_1 abstract view
.subckt sky130_fd_sc_hd__or4b_1 A B C D_N VGND VNB VPB VPWR X
.ends

* Black-box entry subcircuit for sky130_fd_sc_hd__dlymetal6s2s_1 abstract view
.subckt sky130_fd_sc_hd__dlymetal6s2s_1 A VGND VNB VPB VPWR X
.ends

* Black-box entry subcircuit for sky130_fd_sc_hd__and3b_1 abstract view
.subckt sky130_fd_sc_hd__and3b_1 A_N B C VGND VNB VPB VPWR X
.ends

* Black-box entry subcircuit for sky130_fd_sc_hd__o21ai_4 abstract view
.subckt sky130_fd_sc_hd__o21ai_4 A1 A2 B1 VGND VNB VPB VPWR Y
.ends

* Black-box entry subcircuit for sky130_fd_sc_hd__and4bb_1 abstract view
.subckt sky130_fd_sc_hd__and4bb_1 A_N B_N C D VGND VNB VPB VPWR X
.ends

* Black-box entry subcircuit for sky130_fd_sc_hd__a211oi_1 abstract view
.subckt sky130_fd_sc_hd__a211oi_1 A1 A2 B1 C1 VGND VNB VPB VPWR Y
.ends

* Black-box entry subcircuit for sky130_fd_sc_hd__a41o_1 abstract view
.subckt sky130_fd_sc_hd__a41o_1 A1 A2 A3 A4 B1 VGND VNB VPB VPWR X
.ends

* Black-box entry subcircuit for sky130_fd_sc_hd__o2111ai_2 abstract view
.subckt sky130_fd_sc_hd__o2111ai_2 A1 A2 B1 C1 D1 VGND VNB VPB VPWR Y
.ends

* Black-box entry subcircuit for sky130_fd_sc_hd__o31ai_2 abstract view
.subckt sky130_fd_sc_hd__o31ai_2 A1 A2 A3 B1 VGND VNB VPB VPWR Y
.ends

* Black-box entry subcircuit for sky130_fd_sc_hd__a21oi_4 abstract view
.subckt sky130_fd_sc_hd__a21oi_4 A1 A2 B1 VGND VNB VPB VPWR Y
.ends

* Black-box entry subcircuit for sky130_fd_sc_hd__nand3_1 abstract view
.subckt sky130_fd_sc_hd__nand3_1 A B C VGND VNB VPB VPWR Y
.ends

* Black-box entry subcircuit for sky130_fd_sc_hd__nand4_4 abstract view
.subckt sky130_fd_sc_hd__nand4_4 A B C D VGND VNB VPB VPWR Y
.ends

* Black-box entry subcircuit for sky130_fd_sc_hd__a21o_2 abstract view
.subckt sky130_fd_sc_hd__a21o_2 A1 A2 B1 VGND VNB VPB VPWR X
.ends

* Black-box entry subcircuit for sky130_fd_sc_hd__a2bb2o_1 abstract view
.subckt sky130_fd_sc_hd__a2bb2o_1 A1_N A2_N B1 B2 VGND VNB VPB VPWR X
.ends

* Black-box entry subcircuit for sky130_fd_sc_hd__nor3_1 abstract view
.subckt sky130_fd_sc_hd__nor3_1 A B C VGND VNB VPB VPWR Y
.ends

* Black-box entry subcircuit for sky130_fd_sc_hd__and4_4 abstract view
.subckt sky130_fd_sc_hd__and4_4 A B C D VGND VNB VPB VPWR X
.ends

* Black-box entry subcircuit for sky130_fd_sc_hd__o31ai_1 abstract view
.subckt sky130_fd_sc_hd__o31ai_1 A1 A2 A3 B1 VGND VNB VPB VPWR Y
.ends

* Black-box entry subcircuit for sky130_fd_sc_hd__or4_4 abstract view
.subckt sky130_fd_sc_hd__or4_4 A B C D VGND VNB VPB VPWR X
.ends

* Black-box entry subcircuit for sky130_fd_sc_hd__nand2b_1 abstract view
.subckt sky130_fd_sc_hd__nand2b_1 A_N B VGND VNB VPB VPWR Y
.ends

* Black-box entry subcircuit for sky130_fd_sc_hd__o221ai_1 abstract view
.subckt sky130_fd_sc_hd__o221ai_1 A1 A2 B1 B2 C1 VGND VNB VPB VPWR Y
.ends

* Black-box entry subcircuit for sky130_fd_sc_hd__nand2_4 abstract view
.subckt sky130_fd_sc_hd__nand2_4 A B VGND VNB VPB VPWR Y
.ends

* Black-box entry subcircuit for sky130_fd_sc_hd__a311oi_1 abstract view
.subckt sky130_fd_sc_hd__a311oi_1 A1 A2 A3 B1 C1 VGND VNB VPB VPWR Y
.ends

* Black-box entry subcircuit for sky130_fd_sc_hd__or4b_4 abstract view
.subckt sky130_fd_sc_hd__or4b_4 A B C D_N VGND VNB VPB VPWR X
.ends

* Black-box entry subcircuit for sky130_fd_sc_hd__or4bb_1 abstract view
.subckt sky130_fd_sc_hd__or4bb_1 A B C_N D_N VGND VNB VPB VPWR X
.ends

* Black-box entry subcircuit for sky130_fd_sc_hd__o311ai_4 abstract view
.subckt sky130_fd_sc_hd__o311ai_4 A1 A2 A3 B1 C1 VGND VNB VPB VPWR Y
.ends

* Black-box entry subcircuit for sky130_fd_sc_hd__xnor2_4 abstract view
.subckt sky130_fd_sc_hd__xnor2_4 A B VGND VNB VPB VPWR Y
.ends

* Black-box entry subcircuit for sky130_fd_sc_hd__a31o_4 abstract view
.subckt sky130_fd_sc_hd__a31o_4 A1 A2 A3 B1 VGND VNB VPB VPWR X
.ends

* Black-box entry subcircuit for sky130_fd_sc_hd__nand2b_2 abstract view
.subckt sky130_fd_sc_hd__nand2b_2 A_N B VGND VNB VPB VPWR Y
.ends

* Black-box entry subcircuit for sky130_fd_sc_hd__and2b_2 abstract view
.subckt sky130_fd_sc_hd__and2b_2 A_N B VGND VNB VPB VPWR X
.ends

* Black-box entry subcircuit for sky130_fd_sc_hd__xnor2_1 abstract view
.subckt sky130_fd_sc_hd__xnor2_1 A B VGND VNB VPB VPWR Y
.ends

* Black-box entry subcircuit for sky130_fd_sc_hd__nor4_1 abstract view
.subckt sky130_fd_sc_hd__nor4_1 A B C D VGND VNB VPB VPWR Y
.ends

* Black-box entry subcircuit for sky130_fd_sc_hd__o2111ai_4 abstract view
.subckt sky130_fd_sc_hd__o2111ai_4 A1 A2 B1 C1 D1 VGND VNB VPB VPWR Y
.ends

* Black-box entry subcircuit for sky130_fd_sc_hd__a211o_2 abstract view
.subckt sky130_fd_sc_hd__a211o_2 A1 A2 B1 C1 VGND VNB VPB VPWR X
.ends

* Black-box entry subcircuit for sky130_fd_sc_hd__a2111oi_1 abstract view
.subckt sky130_fd_sc_hd__a2111oi_1 A1 A2 B1 C1 D1 VGND VNB VPB VPWR Y
.ends

* Black-box entry subcircuit for sky130_fd_sc_hd__nand4_1 abstract view
.subckt sky130_fd_sc_hd__nand4_1 A B C D VGND VNB VPB VPWR Y
.ends

* Black-box entry subcircuit for sky130_fd_sc_hd__o211ai_4 abstract view
.subckt sky130_fd_sc_hd__o211ai_4 A1 A2 B1 C1 VGND VNB VPB VPWR Y
.ends

* Black-box entry subcircuit for sky130_fd_sc_hd__nand3b_4 abstract view
.subckt sky130_fd_sc_hd__nand3b_4 A_N B C VGND VNB VPB VPWR Y
.ends

* Black-box entry subcircuit for sky130_fd_sc_hd__o31ai_4 abstract view
.subckt sky130_fd_sc_hd__o31ai_4 A1 A2 A3 B1 VGND VNB VPB VPWR Y
.ends

* Black-box entry subcircuit for sky130_fd_sc_hd__a311oi_2 abstract view
.subckt sky130_fd_sc_hd__a311oi_2 A1 A2 A3 B1 C1 VGND VNB VPB VPWR Y
.ends

* Black-box entry subcircuit for sky130_fd_sc_hd__or3b_4 abstract view
.subckt sky130_fd_sc_hd__or3b_4 A B C_N VGND VNB VPB VPWR X
.ends

.subckt tt_um_audio_player VGND VPWR clk ena rst_n ui_in[0] ui_in[1] ui_in[2] ui_in[3]
+ ui_in[4] ui_in[5] ui_in[6] ui_in[7] uio_in[0] uio_in[1] uio_in[2] uio_in[3] uio_in[4]
+ uio_in[5] uio_in[6] uio_in[7] uio_oe[0] uio_oe[1] uio_oe[2] uio_oe[3] uio_oe[4]
+ uio_oe[5] uio_oe[6] uio_oe[7] uio_out[0] uio_out[1] uio_out[2] uio_out[3] uio_out[4]
+ uio_out[5] uio_out[6] uio_out[7] uo_out[0] uo_out[1] uo_out[2] uo_out[3] uo_out[4]
+ uo_out[5] uo_out[6] uo_out[7]
XTAP_TAPCELL_ROW_17_180 VGND VPWR sky130_fd_sc_hd__tapvpwrvgnd_1
XFILLER_0_4_171 VGND VGND VPWR VPWR sky130_fd_sc_hd__decap_3
XTAP_TAPCELL_ROW_9_137 VGND VPWR sky130_fd_sc_hd__tapvpwrvgnd_1
XFILLER_0_23_247 VGND VGND VPWR VPWR sky130_fd_sc_hd__decap_3
XFILLER_0_3_39 VGND VGND VPWR VPWR sky130_fd_sc_hd__decap_3
X_1270_ _0953_/X _1342_/B _1154_/X _1269_/X VGND VGND VPWR VPWR _1270_/X sky130_fd_sc_hd__o31a_1
XTAP_TAPCELL_ROW_14_161 VGND VPWR sky130_fd_sc_hd__tapvpwrvgnd_1
XFILLER_0_13_84 VGND VGND VPWR VPWR sky130_fd_sc_hd__fill_1
X_1606_ clkload0/A _1606_/D fanout120/X VGND VGND VPWR VPWR _1606_/Q sky130_fd_sc_hd__dfrtp_1
XFILLER_0_1_152 VGND VGND VPWR VPWR sky130_fd_sc_hd__decap_3
X_0985_ _0953_/A _0985_/B VGND VGND VPWR VPWR _1362_/C sky130_fd_sc_hd__nand2b_4
XFILLER_0_14_214 VGND VGND VPWR VPWR sky130_fd_sc_hd__fill_2
XFILLER_0_14_258 VGND VGND VPWR VPWR sky130_fd_sc_hd__fill_1
XFILLER_0_38_70 VGND VGND VPWR VPWR sky130_fd_sc_hd__decap_3
X_1537_ _1229_/A _1357_/A _1562_/B _1542_/B _1236_/B VGND VGND VPWR VPWR _1589_/D
+ sky130_fd_sc_hd__a32o_1
Xfanout116 _0787_/Y VGND VGND VPWR VPWR _1525_/B sky130_fd_sc_hd__buf_2
X_1399_ _1399_/A _1399_/B VGND VGND VPWR VPWR _1399_/Y sky130_fd_sc_hd__nor2_1
Xfanout105 _0851_/D VGND VGND VPWR VPWR _0849_/B sky130_fd_sc_hd__buf_4
XFILLER_0_1_196 VGND VGND VPWR VPWR sky130_fd_sc_hd__decap_3
X_1468_ _0996_/A _1467_/Y _1193_/X VGND VGND VPWR VPWR _1468_/Y sky130_fd_sc_hd__o21ai_1
XTAP_TAPCELL_ROW_6_118 VGND VPWR sky130_fd_sc_hd__tapvpwrvgnd_1
XFILLER_0_9_263 VGND VGND VPWR VPWR sky130_fd_sc_hd__decap_3
XTAP_TAPCELL_ROW_20_197 VGND VPWR sky130_fd_sc_hd__tapvpwrvgnd_1
XFILLER_0_20_206 VGND VGND VPWR VPWR sky130_fd_sc_hd__fill_2
XTAP_TAPCELL_ROW_28_242 VGND VPWR sky130_fd_sc_hd__tapvpwrvgnd_1
XFILLER_0_38_9 VGND VGND VPWR VPWR sky130_fd_sc_hd__decap_3
X_1322_ _1316_/X _1318_/Y _1321_/X _0843_/Y VGND VGND VPWR VPWR _1322_/X sky130_fd_sc_hd__o31a_1
X_1253_ _0816_/A _0816_/B _1085_/Y _0888_/B _0930_/D VGND VGND VPWR VPWR _1253_/X
+ sky130_fd_sc_hd__a311o_1
X_1184_ _1184_/A _1362_/B _1362_/D VGND VGND VPWR VPWR _1184_/X sky130_fd_sc_hd__or3_1
XFILLER_0_24_83 VGND VGND VPWR VPWR sky130_fd_sc_hd__fill_1
XFILLER_0_6_200 VGND VGND VPWR VPWR sky130_fd_sc_hd__fill_2
X_0968_ _1035_/A _1036_/A VGND VGND VPWR VPWR _1398_/B sky130_fd_sc_hd__nor2_1
X_0899_ _0900_/A _1539_/A _0900_/C _1236_/B VGND VGND VPWR VPWR _1147_/B sky130_fd_sc_hd__nor4_2
XFILLER_0_10_250 VGND VGND VPWR VPWR sky130_fd_sc_hd__fill_2
XFILLER_0_10_261 VGND VGND VPWR VPWR sky130_fd_sc_hd__decap_3
XFILLER_0_4_71 VGND VGND VPWR VPWR sky130_fd_sc_hd__decap_3
XTAP_TAPCELL_ROW_25_223 VGND VPWR sky130_fd_sc_hd__tapvpwrvgnd_1
XFILLER_0_25_309 VGND VGND VPWR VPWR sky130_fd_sc_hd__decap_3
XFILLER_0_0_18 VGND VGND VPWR VPWR sky130_fd_sc_hd__decap_3
XFILLER_0_0_29 VGND VGND VPWR VPWR sky130_fd_sc_hd__decap_3
X_0822_ _1398_/A _1339_/B VGND VGND VPWR VPWR _1420_/B sky130_fd_sc_hd__and2b_1
XFILLER_0_28_169 VGND VGND VPWR VPWR sky130_fd_sc_hd__decap_3
XFILLER_0_16_309 VGND VGND VPWR VPWR sky130_fd_sc_hd__decap_3
XFILLER_0_3_214 VGND VGND VPWR VPWR sky130_fd_sc_hd__decap_3
XFILLER_0_3_225 VGND VGND VPWR VPWR sky130_fd_sc_hd__decap_3
XFILLER_0_3_258 VGND VGND VPWR VPWR sky130_fd_sc_hd__decap_3
XFILLER_0_10_41 VGND VGND VPWR VPWR sky130_fd_sc_hd__decap_3
XFILLER_0_10_85 VGND VGND VPWR VPWR sky130_fd_sc_hd__decap_3
XFILLER_0_36_6 VGND VGND VPWR VPWR sky130_fd_sc_hd__decap_3
X_1236_ _1534_/S _1236_/B _1236_/C _1236_/D VGND VGND VPWR VPWR _1237_/B sky130_fd_sc_hd__and4b_1
XFILLER_0_19_94 VGND VGND VPWR VPWR sky130_fd_sc_hd__fill_2
XFILLER_0_19_83 VGND VGND VPWR VPWR sky130_fd_sc_hd__decap_3
X_1305_ _0854_/X _1339_/D _1043_/B _0953_/A VGND VGND VPWR VPWR _1305_/Y sky130_fd_sc_hd__a31oi_1
XFILLER_0_35_60 VGND VGND VPWR VPWR sky130_fd_sc_hd__decap_3
XTAP_TAPCELL_ROW_22_204 VGND VPWR sky130_fd_sc_hd__tapvpwrvgnd_1
X_1098_ _1323_/B _1098_/B VGND VGND VPWR VPWR _1098_/X sky130_fd_sc_hd__or2_1
X_1167_ _1252_/A _1411_/C _1442_/A VGND VGND VPWR VPWR _1167_/Y sky130_fd_sc_hd__o21ai_1
XFILLER_0_34_106 VGND VGND VPWR VPWR sky130_fd_sc_hd__decap_3
XFILLER_0_27_191 VGND VGND VPWR VPWR sky130_fd_sc_hd__decap_3
XFILLER_0_19_169 VGND VGND VPWR VPWR sky130_fd_sc_hd__fill_1
XFILLER_0_2_280 VGND VGND VPWR VPWR sky130_fd_sc_hd__decap_3
XPHY_EDGE_ROW_8_Left_47 VGND VGND VPWR VPWR sky130_fd_sc_hd__decap_3
XFILLER_0_25_106 VGND VGND VPWR VPWR sky130_fd_sc_hd__decap_3
XFILLER_0_21_312 VGND VGND VPWR VPWR sky130_fd_sc_hd__decap_3
XFILLER_0_18_191 VGND VGND VPWR VPWR sky130_fd_sc_hd__fill_2
XFILLER_0_0_228 VGND VGND VPWR VPWR sky130_fd_sc_hd__decap_3
XFILLER_0_0_206 VGND VGND VPWR VPWR sky130_fd_sc_hd__decap_3
X_1021_ _1190_/B _1021_/B VGND VGND VPWR VPWR _1021_/Y sky130_fd_sc_hd__nor2_1
X_0805_ hold4/A _1605_/Q _1606_/Q VGND VGND VPWR VPWR _0807_/B sky130_fd_sc_hd__a21o_1
XFILLER_0_24_161 VGND VGND VPWR VPWR sky130_fd_sc_hd__decap_3
XFILLER_0_21_84 VGND VGND VPWR VPWR sky130_fd_sc_hd__decap_3
XFILLER_0_21_40 VGND VGND VPWR VPWR sky130_fd_sc_hd__decap_3
XFILLER_0_16_139 VGND VGND VPWR VPWR sky130_fd_sc_hd__fill_1
XFILLER_0_24_194 VGND VGND VPWR VPWR sky130_fd_sc_hd__fill_2
XFILLER_0_34_3 VGND VGND VPWR VPWR sky130_fd_sc_hd__decap_3
X_1219_ _0996_/A _1237_/A _0936_/Y _1218_/Y _0914_/Y VGND VGND VPWR VPWR _1219_/X
+ sky130_fd_sc_hd__o32a_1
XFILLER_0_1_72 VGND VGND VPWR VPWR sky130_fd_sc_hd__decap_3
XFILLER_0_30_197 VGND VGND VPWR VPWR sky130_fd_sc_hd__fill_2
XFILLER_0_30_186 VGND VGND VPWR VPWR sky130_fd_sc_hd__decap_3
XFILLER_0_26_29 VGND VGND VPWR VPWR sky130_fd_sc_hd__fill_1
XFILLER_0_38_253 VGND VGND VPWR VPWR sky130_fd_sc_hd__fill_1
XFILLER_0_13_109 VGND VGND VPWR VPWR sky130_fd_sc_hd__decap_3
X_1570_ hold12/A _1570_/B _1570_/C VGND VGND VPWR VPWR _1570_/X sky130_fd_sc_hd__and3_1
XANTENNA_5 _1036_/B VGND VGND VPWR VPWR sky130_fd_sc_hd__diode_2
X_1004_ _0926_/A _0962_/B _0989_/A VGND VGND VPWR VPWR _1004_/Y sky130_fd_sc_hd__a21oi_2
XFILLER_0_8_103 VGND VGND VPWR VPWR sky130_fd_sc_hd__decap_3
XFILLER_0_8_136 VGND VGND VPWR VPWR sky130_fd_sc_hd__decap_3
XFILLER_0_12_120 VGND VGND VPWR VPWR sky130_fd_sc_hd__decap_3
XFILLER_0_12_197 VGND VGND VPWR VPWR sky130_fd_sc_hd__decap_3
XFILLER_0_35_278 VGND VGND VPWR VPWR sky130_fd_sc_hd__fill_2
XFILLER_0_37_39 VGND VGND VPWR VPWR sky130_fd_sc_hd__decap_3
XFILLER_0_26_256 VGND VGND VPWR VPWR sky130_fd_sc_hd__fill_2
XFILLER_0_26_223 VGND VGND VPWR VPWR sky130_fd_sc_hd__fill_2
XFILLER_0_1_323 VGND VGND VPWR VPWR sky130_fd_sc_hd__decap_3
XFILLER_0_5_128 VGND VGND VPWR VPWR sky130_fd_sc_hd__decap_3
X_1553_ _0903_/B _1548_/X _1247_/B VGND VGND VPWR VPWR _1554_/B sky130_fd_sc_hd__a21o_1
X_1484_ _1454_/B _1261_/X _1479_/Y _1481_/X _1116_/C VGND VGND VPWR VPWR _1484_/X
+ sky130_fd_sc_hd__o32a_1
XTAP_TAPCELL_ROW_17_181 VGND VPWR sky130_fd_sc_hd__tapvpwrvgnd_1
XFILLER_0_17_267 VGND VGND VPWR VPWR sky130_fd_sc_hd__decap_3
XFILLER_0_17_212 VGND VGND VPWR VPWR sky130_fd_sc_hd__decap_3
XFILLER_0_4_150 VGND VGND VPWR VPWR sky130_fd_sc_hd__decap_3
XFILLER_0_4_183 VGND VGND VPWR VPWR sky130_fd_sc_hd__decap_3
XFILLER_0_7_93 VGND VGND VPWR VPWR sky130_fd_sc_hd__decap_3
XPHY_EDGE_ROW_37_Left_76 VGND VGND VPWR VPWR sky130_fd_sc_hd__decap_3
XFILLER_0_23_237 VGND VGND VPWR VPWR sky130_fd_sc_hd__decap_3
XFILLER_0_23_215 VGND VGND VPWR VPWR sky130_fd_sc_hd__decap_3
XFILLER_0_2_109 VGND VGND VPWR VPWR sky130_fd_sc_hd__decap_3
XFILLER_0_3_18 VGND VGND VPWR VPWR sky130_fd_sc_hd__decap_3
X_0984_ _0991_/A _1398_/A VGND VGND VPWR VPWR _1434_/C sky130_fd_sc_hd__and2b_1
XFILLER_0_13_30 VGND VGND VPWR VPWR sky130_fd_sc_hd__decap_3
XFILLER_0_13_63 VGND VGND VPWR VPWR sky130_fd_sc_hd__decap_3
XTAP_TAPCELL_ROW_14_162 VGND VPWR sky130_fd_sc_hd__tapvpwrvgnd_1
X_1605_ clkload0/A _1605_/D fanout120/X VGND VGND VPWR VPWR _1605_/Q sky130_fd_sc_hd__dfrtp_1
X_1536_ _1542_/B _1544_/B VGND VGND VPWR VPWR _1562_/B sky130_fd_sc_hd__nor2_2
XFILLER_0_22_292 VGND VGND VPWR VPWR sky130_fd_sc_hd__decap_3
XFILLER_0_1_175 VGND VGND VPWR VPWR sky130_fd_sc_hd__decap_3
XFILLER_0_1_164 VGND VGND VPWR VPWR sky130_fd_sc_hd__decap_3
XFILLER_0_1_131 VGND VGND VPWR VPWR sky130_fd_sc_hd__decap_3
Xfanout117 fanout119/X VGND VGND VPWR VPWR fanout117/X sky130_fd_sc_hd__clkbuf_4
XFILLER_0_38_82 VGND VGND VPWR VPWR sky130_fd_sc_hd__fill_2
XFILLER_0_38_60 VGND VGND VPWR VPWR sky130_fd_sc_hd__fill_1
Xfanout106 _0851_/D VGND VGND VPWR VPWR _1236_/B sky130_fd_sc_hd__buf_4
X_1398_ _1398_/A _1398_/B _1398_/C VGND VGND VPWR VPWR _1398_/X sky130_fd_sc_hd__or3_1
X_1467_ _1146_/B _1343_/C _1028_/X VGND VGND VPWR VPWR _1467_/Y sky130_fd_sc_hd__o21ai_1
XTAP_TAPCELL_ROW_6_119 VGND VPWR sky130_fd_sc_hd__tapvpwrvgnd_1
XTAP_TAPCELL_ROW_37_287 VGND VPWR sky130_fd_sc_hd__tapvpwrvgnd_1
XTAP_TAPCELL_ROW_20_198 VGND VPWR sky130_fd_sc_hd__tapvpwrvgnd_1
XFILLER_0_13_281 VGND VGND VPWR VPWR sky130_fd_sc_hd__fill_1
XFILLER_0_34_29 VGND VGND VPWR VPWR sky130_fd_sc_hd__decap_3
XFILLER_0_34_18 VGND VGND VPWR VPWR sky130_fd_sc_hd__decap_3
X_1252_ _1252_/A _1252_/B _1252_/C VGND VGND VPWR VPWR _1252_/X sky130_fd_sc_hd__or3_1
X_1321_ _1135_/B _1299_/Y _1320_/X _1114_/A VGND VGND VPWR VPWR _1321_/X sky130_fd_sc_hd__o211a_1
X_1183_ _1183_/A _1183_/B VGND VGND VPWR VPWR _1183_/Y sky130_fd_sc_hd__nand2_1
X_0967_ _0960_/X _0964_/Y _0966_/X _1560_/A VGND VGND VPWR VPWR _0967_/X sky130_fd_sc_hd__o31a_1
XFILLER_0_6_234 VGND VGND VPWR VPWR sky130_fd_sc_hd__decap_3
XFILLER_0_6_289 VGND VGND VPWR VPWR sky130_fd_sc_hd__decap_3
X_1519_ _1497_/Y _1517_/Y _1518_/X _1524_/B hold11/X VGND VGND VPWR VPWR _1582_/D
+ sky130_fd_sc_hd__a32o_1
X_0898_ _0844_/X _0887_/X _0897_/X VGND VGND VPWR VPWR _0898_/X sky130_fd_sc_hd__a21o_1
XFILLER_0_10_295 VGND VGND VPWR VPWR sky130_fd_sc_hd__decap_3
XPHY_EDGE_ROW_12_Right_12 VGND VGND VPWR VPWR sky130_fd_sc_hd__decap_3
XPHY_EDGE_ROW_21_Right_21 VGND VGND VPWR VPWR sky130_fd_sc_hd__decap_3
XFILLER_0_4_50 VGND VGND VPWR VPWR sky130_fd_sc_hd__decap_3
XFILLER_0_4_83 VGND VGND VPWR VPWR sky130_fd_sc_hd__fill_1
XFILLER_0_4_94 VGND VGND VPWR VPWR sky130_fd_sc_hd__decap_3
XFILLER_0_37_104 VGND VGND VPWR VPWR sky130_fd_sc_hd__decap_3
XTAP_TAPCELL_ROW_25_224 VGND VPWR sky130_fd_sc_hd__tapvpwrvgnd_1
XPHY_EDGE_ROW_30_Right_30 VGND VGND VPWR VPWR sky130_fd_sc_hd__decap_3
XFILLER_0_29_29 VGND VGND VPWR VPWR sky130_fd_sc_hd__decap_3
XFILLER_0_29_18 VGND VGND VPWR VPWR sky130_fd_sc_hd__decap_3
XFILLER_0_28_137 VGND VGND VPWR VPWR sky130_fd_sc_hd__decap_3
X_0821_ _0931_/B _1035_/A _0985_/B VGND VGND VPWR VPWR _1281_/A sky130_fd_sc_hd__nand3_2
XPHY_EDGE_ROW_24_Left_63 VGND VGND VPWR VPWR sky130_fd_sc_hd__decap_3
XFILLER_0_19_40 VGND VGND VPWR VPWR sky130_fd_sc_hd__fill_2
XFILLER_0_3_237 VGND VGND VPWR VPWR sky130_fd_sc_hd__decap_3
XFILLER_0_10_64 VGND VGND VPWR VPWR sky130_fd_sc_hd__fill_2
XFILLER_0_10_97 VGND VGND VPWR VPWR sky130_fd_sc_hd__decap_3
X_1166_ _1166_/A _1599_/Q VGND VGND VPWR VPWR _1488_/A sky130_fd_sc_hd__nand2_1
XFILLER_0_29_6 VGND VGND VPWR VPWR sky130_fd_sc_hd__decap_3
XFILLER_0_19_73 VGND VGND VPWR VPWR sky130_fd_sc_hd__decap_3
X_1235_ _1232_/X _1234_/X _1555_/A VGND VGND VPWR VPWR _1235_/X sky130_fd_sc_hd__o21a_1
X_1304_ _1304_/A1 _1043_/B _1303_/X _1323_/A _1039_/B VGND VGND VPWR VPWR _1304_/X
+ sky130_fd_sc_hd__o2111a_1
XTAP_TAPCELL_ROW_22_205 VGND VPWR sky130_fd_sc_hd__tapvpwrvgnd_1
XFILLER_0_19_126 VGND VGND VPWR VPWR sky130_fd_sc_hd__fill_1
X_1097_ _0953_/X _1029_/Y _1181_/D _1096_/X VGND VGND VPWR VPWR _1098_/B sky130_fd_sc_hd__o22a_1
XFILLER_0_34_118 VGND VGND VPWR VPWR sky130_fd_sc_hd__decap_3
XFILLER_0_15_332 VGND VGND VPWR VPWR sky130_fd_sc_hd__decap_3
XFILLER_0_2_292 VGND VGND VPWR VPWR sky130_fd_sc_hd__decap_3
XFILLER_0_18_170 VGND VGND VPWR VPWR sky130_fd_sc_hd__decap_3
XFILLER_0_33_140 VGND VGND VPWR VPWR sky130_fd_sc_hd__decap_3
XFILLER_0_0_218 VGND VGND VPWR VPWR sky130_fd_sc_hd__decap_3
X_1020_ _1260_/A _1544_/A VGND VGND VPWR VPWR _1020_/X sky130_fd_sc_hd__or2_1
X_0804_ hold14/X _1605_/Q _0803_/Y VGND VGND VPWR VPWR _1605_/D sky130_fd_sc_hd__o21a_1
XFILLER_0_24_173 VGND VGND VPWR VPWR sky130_fd_sc_hd__decap_3
XFILLER_0_21_63 VGND VGND VPWR VPWR sky130_fd_sc_hd__decap_3
XFILLER_0_27_3 VGND VGND VPWR VPWR sky130_fd_sc_hd__decap_3
X_1218_ _1218_/A1 _1037_/A _0869_/A VGND VGND VPWR VPWR _1218_/Y sky130_fd_sc_hd__o21ai_2