*SPEF "ieee 1481-1999"
*DESIGN "tt_um_audio_player"
*DATE "17:42:26 Sunday November 10, 2024"
*VENDOR "The OpenROAD Project"
*PROGRAM "OpenROAD"
*VERSION "b16bda7e82721d10566ff7e2b68f1ff0be9f9e38"
*DESIGN_FLOW "NAME_SCOPE LOCAL" "PIN_CAP NONE"
*DIVIDER /
*DELIMITER :
*BUS_DELIMITER []
*T_UNIT 1 NS
*C_UNIT 1 PF
*R_UNIT 1 OHM
*L_UNIT 1 HENRY

*NAME_MAP
*3 clk
*4 ena
*5 rst_n
*6 ui_in[0]
*7 ui_in[1]
*8 ui_in[2]
*9 ui_in[3]
*10 ui_in[4]
*11 ui_in[5]
*12 ui_in[6]
*13 ui_in[7]
*14 uio_in[0]
*15 uio_in[1]
*16 uio_in[2]
*17 uio_in[3]
*18 uio_in[4]
*19 uio_in[5]
*20 uio_in[6]
*21 uio_in[7]
*22 net121
*23 net122
*24 net123
*25 net124
*26 net125
*27 net126
*28 net127
*29 net128
*30 net129
*31 net130
*32 net131
*33 net132
*34 net133
*35 net134
*36 net135
*37 net136
*38 uo_out[0]
*39 net137
*40 net138
*41 net139
*42 net140
*43 net141
*44 net142
*45 net143
*46 _0000_
*47 _0001_
*48 _0002_
*49 _0003_
*50 _0004_
*51 _0005_
*52 _0006_
*53 _0007_
*54 _0008_
*55 _0009_
*56 _0010_
*57 _0011_
*58 _0012_
*59 _0013_
*60 _0014_
*61 _0015_
*62 _0016_
*63 _0017_
*64 _0018_
*65 _0019_
*66 _0020_
*67 _0021_
*68 _0022_
*69 _0023_
*70 _0024_
*71 _0025_
*72 _0026_
*73 _0027_
*74 _0028_
*75 _0029_
*76 _0030_
*77 _0031_
*78 _0032_
*79 _0033_
*80 _0034_
*81 _0035_
*82 _0036_
*83 _0037_
*84 _0038_
*85 _0039_
*86 _0040_
*87 _0041_
*88 _0042_
*89 _0043_
*90 _0044_
*91 _0045_
*92 _0046_
*93 _0047_
*94 _0048_
*95 _0049_
*96 _0050_
*97 _0051_
*98 _0052_
*99 _0053_
*100 _0054_
*101 _0055_
*102 _0056_
*103 _0057_
*104 _0058_
*105 _0059_
*106 _0060_
*107 _0061_
*108 _0062_
*109 _0063_
*110 _0064_
*111 _0065_
*112 _0066_
*113 _0067_
*114 _0068_
*115 _0069_
*116 _0070_
*117 _0071_
*118 _0072_
*119 _0073_
*120 _0074_
*121 _0075_
*122 _0076_
*123 _0077_
*124 _0078_
*125 _0079_
*126 _0080_
*127 _0081_
*128 _0082_
*129 _0083_
*130 _0084_
*131 _0085_
*132 _0086_
*133 _0087_
*134 _0088_
*135 _0089_
*136 _0090_
*137 _0091_
*138 _0092_
*139 _0093_
*140 _0094_
*141 _0095_
*142 _0096_
*143 _0097_
*144 _0098_
*145 _0099_
*146 _0100_
*147 _0101_
*148 _0102_
*149 _0103_
*150 _0104_
*151 _0105_
*152 _0106_
*153 _0107_
*154 _0108_
*155 _0109_
*156 _0110_
*157 _0111_
*158 _0112_
*159 _0113_
*160 _0114_
*161 _0115_
*162 _0116_
*163 _0117_
*164 _0118_
*165 _0119_
*166 _0120_
*167 _0121_
*168 _0122_
*169 _0123_
*170 _0124_
*171 _0125_
*172 _0126_
*173 _0127_
*174 _0128_
*175 _0129_
*176 _0130_
*177 _0131_
*178 _0132_
*179 _0133_
*180 _0134_
*181 _0135_
*182 _0136_
*183 _0137_
*184 _0138_
*185 _0139_
*186 _0140_
*187 _0141_
*188 _0142_
*189 _0143_
*190 _0144_
*191 _0145_
*192 _0146_
*193 _0147_
*194 _0148_
*195 _0149_
*196 _0150_
*197 _0151_
*198 _0152_
*199 _0153_
*200 _0154_
*201 _0155_
*202 _0156_
*203 _0157_
*204 _0158_
*205 _0159_
*206 _0160_
*207 _0161_
*208 _0162_
*209 _0163_
*210 _0164_
*211 _0165_
*212 _0166_
*213 _0167_
*214 _0168_
*215 _0169_
*216 _0170_
*217 _0171_
*218 _0172_
*219 _0173_
*220 _0174_
*221 _0175_
*222 _0176_
*223 _0177_
*224 _0178_
*225 _0179_
*226 _0180_
*227 _0181_
*228 _0182_
*229 _0183_
*230 _0184_
*231 _0185_
*232 _0186_
*233 _0187_
*234 _0188_
*235 _0189_
*236 _0190_
*237 _0191_
*238 _0192_
*239 _0193_
*240 _0194_
*241 _0195_
*242 _0196_
*243 _0197_
*244 _0198_
*245 _0199_
*246 _0200_
*247 _0201_
*248 _0202_
*249 _0203_
*250 _0204_
*251 _0205_
*252 _0206_
*253 _0207_
*254 _0208_
*255 _0209_
*256 _0210_
*257 _0211_
*258 _0212_
*259 _0213_
*260 _0214_
*261 _0215_
*262 _0216_
*263 _0217_
*264 _0218_
*265 _0219_
*266 _0220_
*267 _0221_
*268 _0222_
*269 _0223_
*270 _0224_
*271 _0225_
*272 _0226_
*273 _0227_
*274 _0228_
*275 _0229_
*276 _0230_
*277 _0231_
*278 _0232_
*279 _0233_
*280 _0234_
*281 _0235_
*282 _0236_
*283 _0237_
*284 _0238_
*285 _0239_
*286 _0240_
*287 _0241_
*288 _0242_
*289 _0243_
*290 _0244_
*291 _0245_
*292 _0246_
*293 _0247_
*294 _0248_
*295 _0249_
*296 _0250_
*297 _0251_
*298 _0252_
*299 _0253_
*300 _0254_
*301 _0255_
*302 _0256_
*303 _0257_
*304 _0258_
*305 _0259_
*306 _0260_
*307 _0261_
*308 _0262_
*309 _0263_
*310 _0264_
*311 _0265_
*312 _0266_
*313 _0267_
*314 _0268_
*315 _0269_
*316 _0270_
*317 _0271_
*318 _0272_
*319 _0273_
*320 _0274_
*321 _0275_
*322 _0276_
*323 _0277_
*324 _0278_
*325 _0279_
*326 _0280_
*327 _0281_
*328 _0282_
*329 _0283_
*330 _0284_
*331 _0285_
*332 _0286_
*333 _0287_
*334 _0288_
*335 _0289_
*336 _0290_
*337 _0291_
*338 _0292_
*339 _0293_
*340 _0294_
*341 _0295_
*342 _0296_
*343 _0297_
*344 _0298_
*345 _0299_
*346 _0300_
*347 _0301_
*348 _0302_
*349 _0303_
*350 _0304_
*351 _0305_
*352 _0306_
*353 _0307_
*354 _0308_
*355 _0309_
*356 _0310_
*357 _0311_
*358 _0312_
*359 _0313_
*360 _0314_
*361 _0315_
*362 _0316_
*363 _0317_
*364 _0318_
*365 _0319_
*366 _0320_
*367 _0321_
*368 _0322_
*369 _0323_
*370 _0324_
*371 _0325_
*372 _0326_
*373 _0327_
*374 _0328_
*375 _0329_
*376 _0330_
*377 _0331_
*378 _0332_
*379 _0333_
*380 _0334_
*381 _0335_
*382 _0336_
*383 _0337_
*384 _0338_
*385 _0339_
*386 _0340_
*387 _0341_
*388 _0342_
*389 _0343_
*390 _0344_
*391 _0345_
*392 _0346_
*393 _0347_
*394 _0348_
*395 _0349_
*396 _0350_
*397 _0351_
*398 _0352_
*399 _0353_
*400 _0354_
*401 _0355_
*402 _0356_
*403 _0357_
*404 _0358_
*405 _0359_
*406 _0360_
*407 _0361_
*408 _0362_
*409 _0363_
*410 _0364_
*411 _0365_
*412 _0366_
*413 _0367_
*414 _0368_
*415 _0369_
*416 _0370_
*417 _0371_
*418 _0372_
*419 _0373_
*420 _0374_
*421 _0375_
*422 _0376_
*423 _0377_
*424 _0378_
*425 _0379_
*426 _0380_
*427 _0381_
*428 _0382_
*429 _0383_
*430 _0384_
*431 _0385_
*432 _0386_
*433 _0387_
*434 _0388_
*435 _0389_
*436 _0390_
*437 _0391_
*438 _0392_
*439 _0393_
*440 _0394_
*441 _0395_
*442 _0396_
*443 _0397_
*444 _0398_
*445 _0399_
*446 _0400_
*447 _0401_
*448 _0402_
*449 _0403_
*450 _0404_
*451 _0405_
*452 _0406_
*453 _0407_
*454 _0408_
*455 _0409_
*456 _0410_
*457 _0411_
*458 _0412_
*459 _0413_
*460 _0414_
*461 _0415_
*462 _0416_
*463 _0417_
*464 _0418_
*465 _0419_
*466 _0420_
*467 _0421_
*468 _0422_
*469 _0423_
*470 _0424_
*471 _0425_
*472 _0426_
*473 _0427_
*474 _0428_
*475 _0429_
*476 _0430_
*477 _0431_
*478 _0432_
*479 _0433_
*480 _0434_
*481 _0435_
*482 _0436_
*483 _0437_
*484 _0438_
*485 _0439_
*486 _0440_
*487 _0441_
*488 _0442_
*489 _0443_
*490 _0444_
*491 _0445_
*492 _0446_
*493 _0447_
*494 _0448_
*495 _0449_
*496 _0450_
*497 _0451_
*498 _0452_
*499 _0453_
*500 _0454_
*501 _0455_
*502 _0456_
*503 _0457_
*504 _0458_
*505 _0459_
*506 _0460_
*507 _0461_
*508 _0462_
*509 _0463_
*510 _0464_
*511 _0465_
*512 _0466_
*513 _0467_
*514 _0468_
*515 _0469_
*516 _0470_
*517 _0471_
*518 _0472_
*519 _0473_
*520 _0474_
*521 _0475_
*522 _0476_
*523 _0477_
*524 _0478_
*525 _0479_
*526 _0480_
*527 _0481_
*528 _0482_
*529 _0483_
*530 _0484_
*531 _0485_
*532 _0486_
*533 _0487_
*534 _0488_
*535 _0489_
*536 _0490_
*537 _0491_
*538 _0492_
*539 _0493_
*540 _0494_
*541 _0495_
*542 _0496_
*543 _0497_
*544 _0498_
*545 _0499_
*546 _0500_
*547 _0501_
*548 _0502_
*549 _0503_
*550 _0504_
*551 _0505_
*552 _0506_
*553 _0507_
*554 _0508_
*555 _0509_
*556 _0510_
*557 _0511_
*558 _0512_
*559 _0513_
*560 _0514_
*561 _0515_
*562 _0516_
*563 _0517_
*564 _0518_
*565 _0519_
*566 _0520_
*567 _0521_
*568 _0522_
*569 _0523_
*570 _0524_
*571 _0525_
*572 _0526_
*573 _0527_
*574 _0528_
*575 _0529_
*576 _0530_
*577 _0531_
*578 _0532_
*579 _0533_
*580 _0534_
*581 _0535_
*582 _0536_
*583 _0537_
*584 _0538_
*585 _0539_
*586 _0540_
*587 _0541_
*588 _0542_
*589 _0543_
*590 _0544_
*591 _0545_
*592 _0546_
*593 _0547_
*594 _0548_
*595 _0549_
*596 _0550_
*597 _0551_
*598 _0552_
*599 _0553_
*600 _0554_
*601 _0555_
*602 _0556_
*603 _0557_
*604 _0558_
*605 _0559_
*606 _0560_
*607 _0561_
*608 _0562_
*609 _0563_
*610 _0564_
*611 _0565_
*612 _0566_
*613 _0567_
*614 _0568_
*615 _0569_
*616 _0570_
*617 _0571_
*618 _0572_
*619 _0573_
*620 _0574_
*621 _0575_
*622 _0576_
*623 _0577_
*624 _0578_
*625 _0579_
*626 _0580_
*627 _0581_
*628 _0582_
*629 _0583_
*630 _0584_
*631 _0585_
*632 _0586_
*633 _0587_
*634 _0588_
*635 _0589_
*636 _0590_
*637 _0591_
*638 _0592_
*639 _0593_
*640 _0594_
*641 _0595_
*642 _0596_
*643 _0597_
*644 _0598_
*645 _0599_
*646 _0600_
*647 _0601_
*648 _0602_
*649 _0603_
*650 _0604_
*651 _0605_
*652 _0606_
*653 _0607_
*654 _0608_
*655 _0609_
*656 _0610_
*657 _0611_
*658 _0612_
*659 _0613_
*660 _0614_
*661 _0615_
*662 _0616_
*663 _0617_
*664 _0618_
*665 _0619_
*666 _0620_
*667 _0621_
*668 _0622_
*669 _0623_
*670 _0624_
*671 _0625_
*672 _0626_
*673 _0627_
*674 _0628_
*675 _0629_
*676 _0630_
*677 _0631_
*678 _0632_
*679 _0633_
*680 _0634_
*681 _0635_
*682 _0636_
*683 _0637_
*684 _0638_
*685 _0639_
*686 _0640_
*687 _0641_
*688 _0642_
*689 _0643_
*690 _0644_
*691 _0645_
*692 _0646_
*693 _0647_
*694 _0648_
*695 _0649_
*696 _0650_
*697 _0651_
*698 _0652_
*699 _0653_
*700 _0654_
*701 _0655_
*702 _0656_
*703 _0657_
*704 _0658_
*705 _0659_
*706 _0660_
*707 _0661_
*708 _0662_
*709 _0663_
*710 _0664_
*711 _0665_
*712 _0666_
*713 _0667_
*714 _0668_
*715 _0669_
*716 _0670_
*717 _0671_
*718 _0672_
*719 _0673_
*720 _0674_
*721 _0675_
*722 _0676_
*723 _0677_
*724 _0678_
*725 _0679_
*726 _0680_
*727 _0681_
*728 _0682_
*729 _0683_
*730 _0684_
*731 _0685_
*732 _0686_
*733 _0687_
*734 _0688_
*735 _0689_
*736 _0690_
*737 _0691_
*738 _0692_
*739 _0693_
*740 _0694_
*741 _0695_
*742 _0696_
*743 _0697_
*744 _0698_
*745 _0699_
*746 _0700_
*747 _0701_
*748 _0702_
*749 _0703_
*750 _0704_
*751 _0705_
*752 _0706_
*753 _0707_
*754 _0708_
*755 _0709_
*756 _0710_
*757 _0711_
*758 _0712_
*759 _0713_
*760 _0714_
*761 _0715_
*762 _0716_
*763 _0717_
*764 _0718_
*765 _0719_
*766 _0720_
*767 _0721_
*768 _0722_
*769 _0723_
*770 _0724_
*771 _0725_
*772 _0726_
*773 _0727_
*774 _0728_
*775 _0729_
*776 _0730_
*777 _0731_
*778 _0732_
*779 _0733_
*780 _0734_
*781 _0735_
*782 _0736_
*783 _0737_
*784 _0738_
*785 _0739_
*786 _0740_
*787 _0741_
*788 _0742_
*789 _0743_
*790 _0744_
*791 _0745_
*792 _0746_
*793 _0747_
*794 _0748_
*795 _0749_
*796 _0750_
*797 _0751_
*798 _0752_
*799 _0753_
*800 _0754_
*801 _0755_
*802 _0756_
*803 _0757_
*804 _0758_
*805 _0759_
*806 _0760_
*807 _0761_
*808 _0762_
*809 _0763_
*810 _0764_
*811 _0765_
*812 _0766_
*813 _0767_
*814 _0768_
*815 _0769_
*816 _0770_
*817 _0771_
*818 _0772_
*819 _0773_
*820 _0774_
*821 _0775_
*822 _0776_
*823 _0777_
*824 _0778_
*825 _0779_
*826 _0780_
*827 _0781_
*828 _0782_
*829 _0783_
*830 _0784_
*831 _0785_
*832 _0786_
*833 audio_player_inst\.audio_out
*834 audio_player_inst\.current_addr\[0\]
*835 audio_player_inst\.current_addr\[10\]
*836 audio_player_inst\.current_addr\[11\]
*837 audio_player_inst\.current_addr\[12\]
*838 audio_player_inst\.current_addr\[13\]
*839 audio_player_inst\.current_addr\[14\]
*840 audio_player_inst\.current_addr\[15\]
*841 audio_player_inst\.current_addr\[1\]
*842 audio_player_inst\.current_addr\[2\]
*843 audio_player_inst\.current_addr\[3\]
*844 audio_player_inst\.current_addr\[4\]
*845 audio_player_inst\.current_addr\[5\]
*846 audio_player_inst\.current_addr\[6\]
*847 audio_player_inst\.current_addr\[7\]
*848 audio_player_inst\.current_addr\[8\]
*849 audio_player_inst\.current_addr\[9\]
*850 audio_player_inst\.pwm_counter\[0\]
*851 audio_player_inst\.pwm_counter\[1\]
*852 audio_player_inst\.pwm_counter\[2\]
*853 audio_player_inst\.pwm_counter\[3\]
*854 audio_player_inst\.sample_counter\[0\]
*855 audio_player_inst\.sample_counter\[10\]
*856 audio_player_inst\.sample_counter\[11\]
*857 audio_player_inst\.sample_counter\[1\]
*858 audio_player_inst\.sample_counter\[2\]
*859 audio_player_inst\.sample_counter\[3\]
*860 audio_player_inst\.sample_counter\[4\]
*861 audio_player_inst\.sample_counter\[5\]
*862 audio_player_inst\.sample_counter\[6\]
*863 audio_player_inst\.sample_counter\[7\]
*864 audio_player_inst\.sample_counter\[8\]
*865 audio_player_inst\.sample_counter\[9\]
*866 audio_player_inst\.sample_tick
*867 clknet_0_clk
*868 clknet_2_0__leaf_clk
*869 clknet_2_1__leaf_clk
*870 clknet_2_2__leaf_clk
*871 clknet_2_3__leaf_clk
*872 net1
*873 net10
*874 net100
*875 net101
*876 net102
*877 net103
*878 net104
*879 net105
*880 net106
*881 net107
*882 net108
*883 net109
*884 net11
*885 net110
*886 net111
*887 net112
*888 net113
*889 net114
*890 net115
*891 net116
*892 net117
*893 net118
*894 net119
*895 net12
*896 net120
*897 net13
*898 net14
*899 net144
*900 net145
*901 net146
*902 net147
*903 net148
*904 net149
*905 net15
*906 net150
*907 net151
*908 net152
*909 net153
*910 net154
*911 net155
*912 net156
*913 net157
*914 net16
*915 net17
*916 net18
*917 net19
*918 net2
*919 net20
*920 net21
*921 net22
*922 net23
*923 net24
*924 net25
*925 net26
*926 net27
*927 net28
*928 net29
*929 net3
*930 net30
*931 net31
*932 net32
*933 net33
*934 net34
*935 net35
*936 net36
*937 net37
*938 net38
*939 net39
*940 net4
*941 net40
*942 net41
*943 net42
*944 net43
*945 net44
*946 net45
*947 net46
*948 net47
*949 net48
*950 net49
*951 net5
*952 net50
*953 net51
*954 net52
*955 net53
*956 net54
*957 net55
*958 net56
*959 net57
*960 net58
*961 net59
*962 net6
*963 net60
*964 net61
*965 net62
*966 net63
*967 net64
*968 net65
*969 net66
*970 net67
*971 net68
*972 net69
*973 net7
*974 net70
*975 net71
*976 net72
*977 net73
*978 net74
*979 net75
*980 net76
*981 net77
*982 net78
*983 net79
*984 net8
*985 net80
*986 net81
*987 net82
*988 net83
*989 net84
*990 net85
*991 net86
*992 net87
*993 net88
*994 net89
*995 net9
*996 net90
*997 net91
*998 net92
*999 net93
*1000 net94
*1001 net95
*1002 net96
*1003 net97
*1004 net98
*1005 net99
*1006 ANTENNA_1
*1007 ANTENNA_10
*1008 ANTENNA_11
*1009 ANTENNA_12
*1010 ANTENNA_13
*1011 ANTENNA_2
*1012 ANTENNA_3
*1013 ANTENNA_4
*1014 ANTENNA_5
*1015 ANTENNA_6
*1016 ANTENNA_7
*1017 ANTENNA_8
*1018 ANTENNA_9
*1019 FILLER_0_0_100
*1020 FILLER_0_0_103
*1021 FILLER_0_0_106
*1022 FILLER_0_0_109
*1023 FILLER_0_0_113
*1024 FILLER_0_0_116
*1025 FILLER_0_0_119
*1026 FILLER_0_0_12
*1027 FILLER_0_0_122
*1028 FILLER_0_0_125
*1029 FILLER_0_0_128
*1030 FILLER_0_0_131
*1031 FILLER_0_0_134
*1032 FILLER_0_0_137
*1033 FILLER_0_0_141
*1034 FILLER_0_0_144
*1035 FILLER_0_0_147
*1036 FILLER_0_0_15
*1037 FILLER_0_0_150
*1038 FILLER_0_0_153
*1039 FILLER_0_0_156
*1040 FILLER_0_0_159
*1041 FILLER_0_0_162
*1042 FILLER_0_0_165
*1043 FILLER_0_0_169
*1044 FILLER_0_0_172
*1045 FILLER_0_0_175
*1046 FILLER_0_0_178
*1047 FILLER_0_0_18
*1048 FILLER_0_0_181
*1049 FILLER_0_0_184
*1050 FILLER_0_0_187
*1051 FILLER_0_0_190
*1052 FILLER_0_0_193
*1053 FILLER_0_0_197
*1054 FILLER_0_0_200
*1055 FILLER_0_0_203
*1056 FILLER_0_0_206
*1057 FILLER_0_0_209
*1058 FILLER_0_0_21
*1059 FILLER_0_0_212
*1060 FILLER_0_0_215
*1061 FILLER_0_0_218
*1062 FILLER_0_0_221
*1063 FILLER_0_0_225
*1064 FILLER_0_0_228
*1065 FILLER_0_0_231
*1066 FILLER_0_0_234
*1067 FILLER_0_0_237
*1068 FILLER_0_0_24
*1069 FILLER_0_0_240
*1070 FILLER_0_0_243
*1071 FILLER_0_0_246
*1072 FILLER_0_0_249
*1073 FILLER_0_0_253
*1074 FILLER_0_0_256
*1075 FILLER_0_0_259
*1076 FILLER_0_0_262
*1077 FILLER_0_0_265
*1078 FILLER_0_0_268
*1079 FILLER_0_0_27
*1080 FILLER_0_0_271
*1081 FILLER_0_0_274
*1082 FILLER_0_0_277
*1083 FILLER_0_0_281
*1084 FILLER_0_0_284
*1085 FILLER_0_0_287
*1086 FILLER_0_0_29
*1087 FILLER_0_0_290
*1088 FILLER_0_0_293
*1089 FILLER_0_0_296
*1090 FILLER_0_0_299
*1091 FILLER_0_0_3
*1092 FILLER_0_0_302
*1093 FILLER_0_0_305
*1094 FILLER_0_0_309
*1095 FILLER_0_0_312
*1096 FILLER_0_0_315
*1097 FILLER_0_0_318
*1098 FILLER_0_0_32
*1099 FILLER_0_0_321
*1100 FILLER_0_0_324
*1101 FILLER_0_0_327
*1102 FILLER_0_0_330
*1103 FILLER_0_0_333
*1104 FILLER_0_0_35
*1105 FILLER_0_0_38
*1106 FILLER_0_0_41
*1107 FILLER_0_0_44
*1108 FILLER_0_0_47
*1109 FILLER_0_0_50
*1110 FILLER_0_0_53
*1111 FILLER_0_0_57
*1112 FILLER_0_0_6
*1113 FILLER_0_0_60
*1114 FILLER_0_0_63
*1115 FILLER_0_0_66
*1116 FILLER_0_0_69
*1117 FILLER_0_0_72
*1118 FILLER_0_0_75
*1119 FILLER_0_0_78
*1120 FILLER_0_0_81
*1121 FILLER_0_0_85
*1122 FILLER_0_0_88
*1123 FILLER_0_0_9
*1124 FILLER_0_0_91
*1125 FILLER_0_0_94
*1126 FILLER_0_0_97
*1127 FILLER_0_10_100
*1128 FILLER_0_10_103
*1129 FILLER_0_10_112
*1130 FILLER_0_10_115
*1131 FILLER_0_10_118
*1132 FILLER_0_10_121
*1133 FILLER_0_10_124
*1134 FILLER_0_10_127
*1135 FILLER_0_10_141
*1136 FILLER_0_10_15
*1137 FILLER_0_10_163
*1138 FILLER_0_10_166
*1139 FILLER_0_10_175
*1140 FILLER_0_10_178
*1141 FILLER_0_10_18
*1142 FILLER_0_10_181
*1143 FILLER_0_10_184
*1144 FILLER_0_10_187
*1145 FILLER_0_10_190
*1146 FILLER_0_10_193
*1147 FILLER_0_10_197
*1148 FILLER_0_10_200
*1149 FILLER_0_10_207
*1150 FILLER_0_10_21
*1151 FILLER_0_10_210
*1152 FILLER_0_10_213
*1153 FILLER_0_10_216
*1154 FILLER_0_10_219
*1155 FILLER_0_10_222
*1156 FILLER_0_10_225
*1157 FILLER_0_10_228
*1158 FILLER_0_10_231
*1159 FILLER_0_10_235
*1160 FILLER_0_10_238
*1161 FILLER_0_10_241
*1162 FILLER_0_10_244
*1163 FILLER_0_10_247
*1164 FILLER_0_10_250
*1165 FILLER_0_10_261
*1166 FILLER_0_10_264
*1167 FILLER_0_10_269
*1168 FILLER_0_10_276
*1169 FILLER_0_10_279
*1170 FILLER_0_10_282
*1171 FILLER_0_10_285
*1172 FILLER_0_10_288
*1173 FILLER_0_10_292
*1174 FILLER_0_10_295
*1175 FILLER_0_10_298
*1176 FILLER_0_10_3
*1177 FILLER_0_10_301
*1178 FILLER_0_10_304
*1179 FILLER_0_10_307
*1180 FILLER_0_10_326
*1181 FILLER_0_10_329
*1182 FILLER_0_10_332
*1183 FILLER_0_10_41
*1184 FILLER_0_10_44
*1185 FILLER_0_10_47
*1186 FILLER_0_10_6
*1187 FILLER_0_10_61
*1188 FILLER_0_10_64
*1189 FILLER_0_10_80
*1190 FILLER_0_10_83
*1191 FILLER_0_10_85
*1192 FILLER_0_10_88
*1193 FILLER_0_10_91
*1194 FILLER_0_10_94
*1195 FILLER_0_10_97
*1196 FILLER_0_11_100
*1197 FILLER_0_11_103
*1198 FILLER_0_11_108
*1199 FILLER_0_11_111
*1200 FILLER_0_11_126
*1201 FILLER_0_11_142
*1202 FILLER_0_11_145
*1203 FILLER_0_11_148
*1204 FILLER_0_11_163
*1205 FILLER_0_11_166
*1206 FILLER_0_11_169
*1207 FILLER_0_11_202
*1208 FILLER_0_11_205
*1209 FILLER_0_11_208
*1210 FILLER_0_11_220
*1211 FILLER_0_11_223
*1212 FILLER_0_11_225
*1213 FILLER_0_11_240
*1214 FILLER_0_11_243
*1215 FILLER_0_11_246
*1216 FILLER_0_11_25
*1217 FILLER_0_11_264
*1218 FILLER_0_11_276
*1219 FILLER_0_11_279
*1220 FILLER_0_11_28
*1221 FILLER_0_11_281
*1222 FILLER_0_11_284
*1223 FILLER_0_11_287
*1224 FILLER_0_11_290
*1225 FILLER_0_11_297
*1226 FILLER_0_11_3
*1227 FILLER_0_11_300
*1228 FILLER_0_11_303
*1229 FILLER_0_11_316
*1230 FILLER_0_11_334
*1231 FILLER_0_11_55
*1232 FILLER_0_11_57
*1233 FILLER_0_11_6
*1234 FILLER_0_11_60
*1235 FILLER_0_11_79
*1236 FILLER_0_11_82
*1237 FILLER_0_11_9
*1238 FILLER_0_12_101
*1239 FILLER_0_12_108
*1240 FILLER_0_12_111
*1241 FILLER_0_12_114
*1242 FILLER_0_12_117
*1243 FILLER_0_12_120
*1244 FILLER_0_12_123
*1245 FILLER_0_12_126
*1246 FILLER_0_12_129
*1247 FILLER_0_12_136
*1248 FILLER_0_12_139
*1249 FILLER_0_12_141
*1250 FILLER_0_12_144
*1251 FILLER_0_12_147
*1252 FILLER_0_12_150
*1253 FILLER_0_12_166
*1254 FILLER_0_12_181
*1255 FILLER_0_12_184
*1256 FILLER_0_12_187
*1257 FILLER_0_12_190
*1258 FILLER_0_12_193
*1259 FILLER_0_12_197
*1260 FILLER_0_12_200
*1261 FILLER_0_12_203
*1262 FILLER_0_12_206
*1263 FILLER_0_12_209
*1264 FILLER_0_12_212
*1265 FILLER_0_12_220
*1266 FILLER_0_12_244
*1267 FILLER_0_12_247
*1268 FILLER_0_12_25
*1269 FILLER_0_12_250
*1270 FILLER_0_12_266
*1271 FILLER_0_12_279
*1272 FILLER_0_12_282
*1273 FILLER_0_12_285
*1274 FILLER_0_12_29
*1275 FILLER_0_12_3
*1276 FILLER_0_12_309
*1277 FILLER_0_12_32
*1278 FILLER_0_12_330
*1279 FILLER_0_12_333
*1280 FILLER_0_12_56
*1281 FILLER_0_12_59
*1282 FILLER_0_12_6
*1283 FILLER_0_12_62
*1284 FILLER_0_12_71
*1285 FILLER_0_12_74
*1286 FILLER_0_12_77
*1287 FILLER_0_12_80
*1288 FILLER_0_12_83
*1289 FILLER_0_12_95
*1290 FILLER_0_12_98
*1291 FILLER_0_13_100
*1292 FILLER_0_13_103
*1293 FILLER_0_13_106
*1294 FILLER_0_13_109
*1295 FILLER_0_13_133
*1296 FILLER_0_13_165
*1297 FILLER_0_13_169
*1298 FILLER_0_13_183
*1299 FILLER_0_13_186
*1300 FILLER_0_13_189
*1301 FILLER_0_13_192
*1302 FILLER_0_13_209
*1303 FILLER_0_13_21
*1304 FILLER_0_13_212
*1305 FILLER_0_13_219
*1306 FILLER_0_13_222
*1307 FILLER_0_13_225
*1308 FILLER_0_13_228
*1309 FILLER_0_13_24
*1310 FILLER_0_13_241
*1311 FILLER_0_13_252
*1312 FILLER_0_13_255
*1313 FILLER_0_13_27
*1314 FILLER_0_13_272
*1315 FILLER_0_13_281
*1316 FILLER_0_13_3
*1317 FILLER_0_13_30
*1318 FILLER_0_13_311
*1319 FILLER_0_13_33
*1320 FILLER_0_13_330
*1321 FILLER_0_13_333
*1322 FILLER_0_13_36
*1323 FILLER_0_13_39
*1324 FILLER_0_13_42
*1325 FILLER_0_13_49
*1326 FILLER_0_13_54
*1327 FILLER_0_13_57
*1328 FILLER_0_13_6
*1329 FILLER_0_13_60
*1330 FILLER_0_13_63
*1331 FILLER_0_13_66
*1332 FILLER_0_13_69
*1333 FILLER_0_13_72
*1334 FILLER_0_13_75
*1335 FILLER_0_13_78
*1336 FILLER_0_13_81
*1337 FILLER_0_13_84
*1338 FILLER_0_14_102
*1339 FILLER_0_14_105
*1340 FILLER_0_14_109
*1341 FILLER_0_14_112
*1342 FILLER_0_14_122
*1343 FILLER_0_14_138
*1344 FILLER_0_14_141
*1345 FILLER_0_14_162
*1346 FILLER_0_14_165
*1347 FILLER_0_14_168
*1348 FILLER_0_14_171
*1349 FILLER_0_14_174
*1350 FILLER_0_14_177
*1351 FILLER_0_14_19
*1352 FILLER_0_14_190
*1353 FILLER_0_14_193
*1354 FILLER_0_14_202
*1355 FILLER_0_14_205
*1356 FILLER_0_14_208
*1357 FILLER_0_14_214
*1358 FILLER_0_14_22
*1359 FILLER_0_14_25
*1360 FILLER_0_14_258
*1361 FILLER_0_14_262
*1362 FILLER_0_14_265
*1363 FILLER_0_14_283
*1364 FILLER_0_14_286
*1365 FILLER_0_14_293
*1366 FILLER_0_14_3
*1367 FILLER_0_14_307
*1368 FILLER_0_14_316
*1369 FILLER_0_14_324
*1370 FILLER_0_14_330
*1371 FILLER_0_14_333
*1372 FILLER_0_14_44
*1373 FILLER_0_14_59
*1374 FILLER_0_14_6
*1375 FILLER_0_14_62
*1376 FILLER_0_14_82
*1377 FILLER_0_14_93
*1378 FILLER_0_14_96
*1379 FILLER_0_14_99
*1380 FILLER_0_15_100
*1381 FILLER_0_15_103
*1382 FILLER_0_15_106
*1383 FILLER_0_15_109
*1384 FILLER_0_15_118
*1385 FILLER_0_15_121
*1386 FILLER_0_15_124
*1387 FILLER_0_15_128
*1388 FILLER_0_15_136
*1389 FILLER_0_15_139
*1390 FILLER_0_15_142
*1391 FILLER_0_15_174
*1392 FILLER_0_15_177
*1393 FILLER_0_15_188
*1394 FILLER_0_15_191
*1395 FILLER_0_15_197
*1396 FILLER_0_15_204
*1397 FILLER_0_15_207
*1398 FILLER_0_15_217
*1399 FILLER_0_15_220
*1400 FILLER_0_15_223
*1401 FILLER_0_15_232
*1402 FILLER_0_15_235
*1403 FILLER_0_15_238
*1404 FILLER_0_15_24
*1405 FILLER_0_15_241
*1406 FILLER_0_15_251
*1407 FILLER_0_15_268
*1408 FILLER_0_15_276
*1409 FILLER_0_15_279
*1410 FILLER_0_15_281
*1411 FILLER_0_15_284
*1412 FILLER_0_15_295
*1413 FILLER_0_15_298
*1414 FILLER_0_15_3
*1415 FILLER_0_15_315
*1416 FILLER_0_15_332
*1417 FILLER_0_15_34
*1418 FILLER_0_15_37
*1419 FILLER_0_15_40
*1420 FILLER_0_15_46
*1421 FILLER_0_15_51
*1422 FILLER_0_15_54
*1423 FILLER_0_15_57
*1424 FILLER_0_15_60
*1425 FILLER_0_15_68
*1426 FILLER_0_15_72
*1427 FILLER_0_15_75
*1428 FILLER_0_15_78
*1429 FILLER_0_15_81
*1430 FILLER_0_15_84
*1431 FILLER_0_15_87
*1432 FILLER_0_16_101
*1433 FILLER_0_16_110
*1434 FILLER_0_16_113
*1435 FILLER_0_16_116
*1436 FILLER_0_16_123
*1437 FILLER_0_16_126
*1438 FILLER_0_16_139
*1439 FILLER_0_16_141
*1440 FILLER_0_16_144
*1441 FILLER_0_16_15
*1442 FILLER_0_16_18
*1443 FILLER_0_16_187
*1444 FILLER_0_16_191
*1445 FILLER_0_16_194
*1446 FILLER_0_16_21
*1447 FILLER_0_16_213
*1448 FILLER_0_16_221
*1449 FILLER_0_16_224
*1450 FILLER_0_16_227
*1451 FILLER_0_16_24
*1452 FILLER_0_16_240
*1453 FILLER_0_16_248
*1454 FILLER_0_16_251
*1455 FILLER_0_16_253
*1456 FILLER_0_16_27
*1457 FILLER_0_16_278
*1458 FILLER_0_16_3
*1459 FILLER_0_16_304
*1460 FILLER_0_16_307
*1461 FILLER_0_16_309
*1462 FILLER_0_16_333
*1463 FILLER_0_16_36
*1464 FILLER_0_16_39
*1465 FILLER_0_16_42
*1466 FILLER_0_16_6
*1467 FILLER_0_16_71
*1468 FILLER_0_16_78
*1469 FILLER_0_16_85
*1470 FILLER_0_17_106
*1471 FILLER_0_17_109
*1472 FILLER_0_17_119
*1473 FILLER_0_17_12
*1474 FILLER_0_17_122
*1475 FILLER_0_17_125
*1476 FILLER_0_17_128
*1477 FILLER_0_17_131
*1478 FILLER_0_17_139
*1479 FILLER_0_17_142
*1480 FILLER_0_17_145
*1481 FILLER_0_17_15
*1482 FILLER_0_17_156
*1483 FILLER_0_17_159
*1484 FILLER_0_17_162
*1485 FILLER_0_17_165
*1486 FILLER_0_17_169
*1487 FILLER_0_17_172
*1488 FILLER_0_17_18
*1489 FILLER_0_17_182
*1490 FILLER_0_17_185
*1491 FILLER_0_17_188
*1492 FILLER_0_17_191
*1493 FILLER_0_17_194
*1494 FILLER_0_17_197
*1495 FILLER_0_17_209
*1496 FILLER_0_17_21
*1497 FILLER_0_17_212
*1498 FILLER_0_17_215
*1499 FILLER_0_17_218
*1500 FILLER_0_17_225
*1501 FILLER_0_17_228
*1502 FILLER_0_17_236
*1503 FILLER_0_17_239
*1504 FILLER_0_17_24
*1505 FILLER_0_17_242
*1506 FILLER_0_17_248
*1507 FILLER_0_17_251
*1508 FILLER_0_17_258
*1509 FILLER_0_17_267
*1510 FILLER_0_17_27
*1511 FILLER_0_17_270
*1512 FILLER_0_17_295
*1513 FILLER_0_17_3
*1514 FILLER_0_17_305
*1515 FILLER_0_17_312
*1516 FILLER_0_17_41
*1517 FILLER_0_17_44
*1518 FILLER_0_17_47
*1519 FILLER_0_17_50
*1520 FILLER_0_17_53
*1521 FILLER_0_17_57
*1522 FILLER_0_17_6
*1523 FILLER_0_17_71
*1524 FILLER_0_17_74
*1525 FILLER_0_17_80
*1526 FILLER_0_17_83
*1527 FILLER_0_17_9
*1528 FILLER_0_17_90
*1529 FILLER_0_18_105
*1530 FILLER_0_18_124
*1531 FILLER_0_18_127
*1532 FILLER_0_18_130
*1533 FILLER_0_18_133
*1534 FILLER_0_18_136
*1535 FILLER_0_18_139
*1536 FILLER_0_18_141
*1537 FILLER_0_18_155
*1538 FILLER_0_18_158
*1539 FILLER_0_18_167
*1540 FILLER_0_18_17
*1541 FILLER_0_18_170
*1542 FILLER_0_18_173
*1543 FILLER_0_18_176
*1544 FILLER_0_18_179
*1545 FILLER_0_18_191
*1546 FILLER_0_18_20
*1547 FILLER_0_18_206
*1548 FILLER_0_18_217
*1549 FILLER_0_18_220
*1550 FILLER_0_18_223
*1551 FILLER_0_18_23
*1552 FILLER_0_18_232
*1553 FILLER_0_18_235
*1554 FILLER_0_18_246
*1555 FILLER_0_18_249
*1556 FILLER_0_18_253
*1557 FILLER_0_18_26
*1558 FILLER_0_18_268
*1559 FILLER_0_18_271
*1560 FILLER_0_18_297
*1561 FILLER_0_18_3
*1562 FILLER_0_18_300
*1563 FILLER_0_18_303
*1564 FILLER_0_18_309
*1565 FILLER_0_18_334
*1566 FILLER_0_18_42
*1567 FILLER_0_18_45
*1568 FILLER_0_18_6
*1569 FILLER_0_18_85
*1570 FILLER_0_18_9
*1571 FILLER_0_19_102
*1572 FILLER_0_19_105
*1573 FILLER_0_19_108
*1574 FILLER_0_19_111
*1575 FILLER_0_19_123
*1576 FILLER_0_19_126
*1577 FILLER_0_19_140
*1578 FILLER_0_19_143
*1579 FILLER_0_19_146
*1580 FILLER_0_19_161
*1581 FILLER_0_19_164
*1582 FILLER_0_19_167
*1583 FILLER_0_19_169
*1584 FILLER_0_19_178
*1585 FILLER_0_19_181
*1586 FILLER_0_19_184
*1587 FILLER_0_19_187
*1588 FILLER_0_19_190
*1589 FILLER_0_19_193
*1590 FILLER_0_19_196
*1591 FILLER_0_19_199
*1592 FILLER_0_19_202
*1593 FILLER_0_19_205
*1594 FILLER_0_19_208
*1595 FILLER_0_19_211
*1596 FILLER_0_19_217
*1597 FILLER_0_19_220
*1598 FILLER_0_19_223
*1599 FILLER_0_19_225
*1600 FILLER_0_19_228
*1601 FILLER_0_19_231
*1602 FILLER_0_19_234
*1603 FILLER_0_19_237
*1604 FILLER_0_19_240
*1605 FILLER_0_19_245
*1606 FILLER_0_19_248
*1607 FILLER_0_19_256
*1608 FILLER_0_19_265
*1609 FILLER_0_19_274
*1610 FILLER_0_19_277
*1611 FILLER_0_19_281
*1612 FILLER_0_19_284
*1613 FILLER_0_19_3
*1614 FILLER_0_19_334
*1615 FILLER_0_19_40
*1616 FILLER_0_19_49
*1617 FILLER_0_19_52
*1618 FILLER_0_19_55
*1619 FILLER_0_19_57
*1620 FILLER_0_19_60
*1621 FILLER_0_19_63
*1622 FILLER_0_19_66
*1623 FILLER_0_19_73
*1624 FILLER_0_19_76
*1625 FILLER_0_19_79
*1626 FILLER_0_19_83
*1627 FILLER_0_19_86
*1628 FILLER_0_19_89
*1629 FILLER_0_19_94
*1630 FILLER_0_19_99
*1631 FILLER_0_1_102
*1632 FILLER_0_1_105
*1633 FILLER_0_1_108
*1634 FILLER_0_1_111
*1635 FILLER_0_1_113
*1636 FILLER_0_1_116
*1637 FILLER_0_1_119
*1638 FILLER_0_1_12
*1639 FILLER_0_1_122
*1640 FILLER_0_1_125
*1641 FILLER_0_1_128
*1642 FILLER_0_1_131
*1643 FILLER_0_1_134
*1644 FILLER_0_1_137
*1645 FILLER_0_1_140
*1646 FILLER_0_1_143
*1647 FILLER_0_1_146
*1648 FILLER_0_1_149
*1649 FILLER_0_1_15
*1650 FILLER_0_1_152
*1651 FILLER_0_1_155
*1652 FILLER_0_1_158
*1653 FILLER_0_1_161
*1654 FILLER_0_1_164
*1655 FILLER_0_1_167
*1656 FILLER_0_1_169
*1657 FILLER_0_1_172
*1658 FILLER_0_1_175
*1659 FILLER_0_1_178
*1660 FILLER_0_1_18
*1661 FILLER_0_1_181
*1662 FILLER_0_1_184
*1663 FILLER_0_1_187
*1664 FILLER_0_1_190
*1665 FILLER_0_1_193
*1666 FILLER_0_1_196
*1667 FILLER_0_1_199
*1668 FILLER_0_1_202
*1669 FILLER_0_1_205
*1670 FILLER_0_1_208
*1671 FILLER_0_1_21
*1672 FILLER_0_1_211
*1673 FILLER_0_1_214
*1674 FILLER_0_1_217
*1675 FILLER_0_1_220
*1676 FILLER_0_1_223
*1677 FILLER_0_1_225
*1678 FILLER_0_1_228
*1679 FILLER_0_1_231
*1680 FILLER_0_1_234
*1681 FILLER_0_1_237
*1682 FILLER_0_1_24
*1683 FILLER_0_1_240
*1684 FILLER_0_1_243
*1685 FILLER_0_1_246
*1686 FILLER_0_1_249
*1687 FILLER_0_1_252
*1688 FILLER_0_1_255
*1689 FILLER_0_1_258
*1690 FILLER_0_1_261
*1691 FILLER_0_1_264
*1692 FILLER_0_1_267
*1693 FILLER_0_1_27
*1694 FILLER_0_1_270
*1695 FILLER_0_1_273
*1696 FILLER_0_1_276
*1697 FILLER_0_1_279
*1698 FILLER_0_1_281
*1699 FILLER_0_1_284
*1700 FILLER_0_1_287
*1701 FILLER_0_1_290
*1702 FILLER_0_1_293
*1703 FILLER_0_1_296
*1704 FILLER_0_1_299
*1705 FILLER_0_1_3
*1706 FILLER_0_1_30
*1707 FILLER_0_1_302
*1708 FILLER_0_1_305
*1709 FILLER_0_1_308
*1710 FILLER_0_1_311
*1711 FILLER_0_1_314
*1712 FILLER_0_1_317
*1713 FILLER_0_1_320
*1714 FILLER_0_1_323
*1715 FILLER_0_1_326
*1716 FILLER_0_1_329
*1717 FILLER_0_1_33
*1718 FILLER_0_1_332
*1719 FILLER_0_1_36
*1720 FILLER_0_1_39
*1721 FILLER_0_1_42
*1722 FILLER_0_1_45
*1723 FILLER_0_1_48
*1724 FILLER_0_1_51
*1725 FILLER_0_1_54
*1726 FILLER_0_1_57
*1727 FILLER_0_1_6
*1728 FILLER_0_1_60
*1729 FILLER_0_1_63
*1730 FILLER_0_1_66
*1731 FILLER_0_1_69
*1732 FILLER_0_1_72
*1733 FILLER_0_1_75
*1734 FILLER_0_1_78
*1735 FILLER_0_1_81
*1736 FILLER_0_1_84
*1737 FILLER_0_1_87
*1738 FILLER_0_1_9
*1739 FILLER_0_1_90
*1740 FILLER_0_1_93
*1741 FILLER_0_1_96
*1742 FILLER_0_1_99
*1743 FILLER_0_20_100
*1744 FILLER_0_20_103
*1745 FILLER_0_20_125
*1746 FILLER_0_20_128
*1747 FILLER_0_20_131
*1748 FILLER_0_20_134
*1749 FILLER_0_20_137
*1750 FILLER_0_20_141
*1751 FILLER_0_20_144
*1752 FILLER_0_20_147
*1753 FILLER_0_20_150
*1754 FILLER_0_20_163
*1755 FILLER_0_20_166
*1756 FILLER_0_20_169
*1757 FILLER_0_20_172
*1758 FILLER_0_20_175
*1759 FILLER_0_20_188
*1760 FILLER_0_20_191
*1761 FILLER_0_20_194
*1762 FILLER_0_20_203
*1763 FILLER_0_20_206
*1764 FILLER_0_20_21
*1765 FILLER_0_20_219
*1766 FILLER_0_20_222
*1767 FILLER_0_20_231
*1768 FILLER_0_20_242
*1769 FILLER_0_20_245
*1770 FILLER_0_20_248
*1771 FILLER_0_20_251
*1772 FILLER_0_20_253
*1773 FILLER_0_20_262
*1774 FILLER_0_20_265
*1775 FILLER_0_20_268
*1776 FILLER_0_20_287
*1777 FILLER_0_20_292
*1778 FILLER_0_20_295
*1779 FILLER_0_20_298
*1780 FILLER_0_20_3
*1781 FILLER_0_20_306
*1782 FILLER_0_20_309
*1783 FILLER_0_20_40
*1784 FILLER_0_20_43
*1785 FILLER_0_20_50
*1786 FILLER_0_20_53
*1787 FILLER_0_20_56
*1788 FILLER_0_20_6